<?xml version="1.0" encoding="UTF-8"?>

<!-- generated on 2024-11-16 21:55:04 by Eclipse SUMO duarouter Version 1.21.0
<duarouterConfiguration xmlns:xsi="http://www.w3.org/2001/XMLSchema-instance" xsi:noNamespaceSchemaLocation="http://sumo.dlr.de/xsd/duarouterConfiguration.xsd">

    <input>
        <net-file value="map.net.xml"/>
        <route-files value="map.trips.xml"/>
    </input>

    <output>
        <output-file value="map.rou.xml"/>
    </output>

    <report>
        <ignore-errors value="true"/>
    </report>

</duarouterConfiguration>
-->

<routes xmlns:xsi="http://www.w3.org/2001/XMLSchema-instance" xsi:noNamespaceSchemaLocation="http://sumo.dlr.de/xsd/routes_file.xsd">
    <vehicle id="0" depart="0.00">
        <route edges="24443806#0 24443806#1 24443806#2 24443806#3 1057256027 -97251479#3 -97251479#2 -97251479#1 -97251479#0"/>
    </vehicle>
    <vehicle id="3" depart="3.00">
        <route edges="97251479#1 97251479#2 97251479#3 24392333#0 24392333#1 24392333#2 24392333#3 1057256029 1057256028 1057256027 -97251479#3 -97251479#2 -97251479#1"/>
    </vehicle>
    <vehicle id="4" depart="4.00">
        <route edges="24436844#2 24436844#3 24436844#4 24436844#5 1057256029 1057256028 1057256027 -97251479#3 -97251479#2 -97251479#1 -97251479#0"/>
    </vehicle>
    <vehicle id="6" depart="6.00">
        <route edges="-97251479#1 -97251479#0 97251479#0 97251479#1 97251479#2 97251479#3 24392333#0 24392333#1 24392333#2 24392333#3 1057256029 1057256028 1057256027 -97251479#3"/>
    </vehicle>
    <vehicle id="9" depart="9.00">
        <route edges="97251479#0 97251479#1 97251479#2 97251479#3 24392333#0 24392333#1 24392333#2 24392333#3 1057256029 1057256028 1057256027 -97251479#3 -97251479#2 -97251479#1 -97251479#0"/>
    </vehicle>
    <vehicle id="11" depart="11.00">
        <route edges="24436844#0 24436844#1 24436844#2 24436844#3 24436844#4 24436844#5 1057256029 1057256028 1057256027 -97251479#3 -97251479#2"/>
    </vehicle>
    <vehicle id="12" depart="12.00">
        <route edges="97251479#3 24392333#0 24392333#1 24392333#2 24392333#3 1057256029 1152958775#0 1152958775#1 24400261 1152958776"/>
    </vehicle>
    <vehicle id="13" depart="13.00">
        <route edges="-97251479#2 -97251479#1"/>
    </vehicle>
    <vehicle id="16" depart="16.00">
        <route edges="24436844#4 24436844#5 1057256029 1057256028 1057256027 -97251479#3 -97251479#2 -97251479#1 -97251479#0 97251479#0 97251479#1 97251479#2 97251479#3"/>
    </vehicle>
    <vehicle id="17" depart="17.00">
        <route edges="24436844#1 24436844#2 24436844#3"/>
    </vehicle>
    <vehicle id="20" depart="20.00">
        <route edges="24443806#2 24443806#3 1057256027 -97251479#3 -97251479#2 -97251479#1 -97251479#0"/>
    </vehicle>
    <vehicle id="21" depart="21.00">
        <route edges="1152958775#1"/>
    </vehicle>
    <vehicle id="22" depart="22.00">
        <route edges="-97251479#2 -97251479#1 -97251479#0 97251479#0 97251479#1 97251479#2 97251479#3 24392333#0 24392333#1 24392333#2 24392333#3 1057256029 1152958775#0"/>
    </vehicle>
    <vehicle id="23" depart="23.00">
        <route edges="-97251479#3 -97251479#2 -97251479#1 -97251479#0 97251479#0 97251479#1 97251479#2 97251479#3 24392333#0 24392333#1 24392333#2 24392333#3 1057256029 1152958775#0 1152958775#1"/>
    </vehicle>
    <vehicle id="24" depart="24.00">
        <route edges="24443806#0 24443806#1 24443806#2 24443806#3 1057256027 24392333#0 24392333#1 24392333#2 24392333#3 1057256029 1152958775#0 1152958775#1 24400261 1152958776"/>
    </vehicle>
    <vehicle id="25" depart="25.00">
        <route edges="24436844#1 24436844#2 24436844#3 24436844#4 24436844#5 1057256029 1057256028 1057256027 -97251479#3"/>
    </vehicle>
    <vehicle id="29" depart="29.00">
        <route edges="1152958775#0 1152958775#1 24400261"/>
    </vehicle>
    <vehicle id="34" depart="34.00">
        <route edges="24436844#0 24436844#1 24436844#2 24436844#3 24436844#4 24436844#5 1057256029 1152958775#0 1152958775#1"/>
    </vehicle>
    <vehicle id="36" depart="36.00">
        <route edges="97251479#1 97251479#2 97251479#3 24392333#0 24392333#1 24392333#2 24392333#3 1057256029 1152958775#0 1152958775#1"/>
    </vehicle>
    <vehicle id="37" depart="37.00">
        <route edges="24443806#1 24443806#2 24443806#3 1057256027 24392333#0 24392333#1 24392333#2 24392333#3 1057256029 1152958775#0 1152958775#1 24400261"/>
    </vehicle>
    <vehicle id="40" depart="40.00">
        <route edges="24436844#5 1057256029 1152958775#0"/>
    </vehicle>
    <vehicle id="41" depart="41.00">
        <route edges="24436844#5 1057256029 1057256028 1057256027 -97251479#3 -97251479#2 -97251479#1 -97251479#0 97251479#0 97251479#1 97251479#2"/>
    </vehicle>
    <vehicle id="42" depart="42.00">
        <route edges="24436844#1 24436844#2 24436844#3 24436844#4 24436844#5 1057256029 1152958775#0"/>
    </vehicle>
    <vehicle id="44" depart="44.00">
        <route edges="-97251479#2 -97251479#1 -97251479#0"/>
    </vehicle>
    <vehicle id="47" depart="47.00">
        <route edges="-97251479#2 -97251479#1 -97251479#0 97251479#0 97251479#1 97251479#2 97251479#3 24392333#0 24392333#1 24392333#2 24392333#3 1057256029 1152958775#0 1152958775#1 24400261"/>
    </vehicle>
    <vehicle id="49" depart="49.00">
        <route edges="97251479#3 24392333#0 24392333#1 24392333#2 24392333#3 1057256029 1057256028 1057256027 -97251479#3 -97251479#2 -97251479#1 -97251479#0 97251479#0 97251479#1"/>
    </vehicle>
    <vehicle id="54" depart="54.00">
        <route edges="24436844#3 24436844#4 24436844#5 1057256029 1057256028 1057256027 -97251479#3 -97251479#2 -97251479#1 -97251479#0 97251479#0 97251479#1 97251479#2 97251479#3"/>
    </vehicle>
    <vehicle id="55" depart="55.00">
        <route edges="97251479#1 97251479#2 97251479#3 24392333#0 24392333#1 24392333#2 24392333#3 1057256029 1152958775#0 1152958775#1"/>
    </vehicle>
    <vehicle id="56" depart="56.00">
        <route edges="24436844#4 24436844#5 1057256029 1057256028 1057256027 -97251479#3"/>
    </vehicle>
    <vehicle id="57" depart="57.00">
        <route edges="97251479#2 97251479#3 24392333#0 24392333#1 24392333#2 24392333#3 1057256029 1057256028 1057256027 -97251479#3 -97251479#2 -97251479#1 -97251479#0 97251479#0 97251479#1"/>
    </vehicle>
    <vehicle id="59" depart="59.00">
        <route edges="24443806#0 24443806#1 24443806#2 24443806#3 1057256027 -97251479#3 -97251479#2"/>
    </vehicle>
    <vehicle id="62" depart="62.00">
        <route edges="-97251479#1 -97251479#0 97251479#0 97251479#1 97251479#2 97251479#3 24392333#0 24392333#1 24392333#2 24392333#3 1057256029 1152958775#0 1152958775#1 24400261 1152958776"/>
    </vehicle>
    <vehicle id="63" depart="63.00">
        <route edges="-97251479#1 -97251479#0 97251479#0 97251479#1 97251479#2"/>
    </vehicle>
    <vehicle id="65" depart="65.00">
        <route edges="24436844#0 24436844#1 24436844#2 24436844#3 24436844#4 24436844#5 1057256029 1057256028 1057256027 -97251479#3 -97251479#2 -97251479#1"/>
    </vehicle>
    <vehicle id="66" depart="66.00">
        <route edges="97251479#1 97251479#2"/>
    </vehicle>
    <vehicle id="69" depart="69.00">
        <route edges="24443806#3 1057256027 -97251479#3 -97251479#2"/>
    </vehicle>
    <vehicle id="70" depart="70.00">
        <route edges="24436844#3"/>
    </vehicle>
    <vehicle id="72" depart="72.00">
        <route edges="24436844#2 24436844#3 24436844#4 24436844#5 1057256029 1152958775#0"/>
    </vehicle>
    <vehicle id="74" depart="74.00">
        <route edges="1152958775#1"/>
    </vehicle>
    <vehicle id="76" depart="76.00">
        <route edges="24436844#2"/>
    </vehicle>
    <vehicle id="77" depart="77.00">
        <route edges="-97251479#3 -97251479#2 -97251479#1 -97251479#0 97251479#0 97251479#1 97251479#2 97251479#3 24392333#0 24392333#1 24392333#2 24392333#3 1057256029 1152958775#0"/>
    </vehicle>
    <vehicle id="78" depart="78.00">
        <route edges="24436844#0 24436844#1 24436844#2 24436844#3 24436844#4"/>
    </vehicle>
    <vehicle id="82" depart="82.00">
        <route edges="97251479#1 97251479#2 97251479#3 24392333#0 24392333#1 24392333#2 24392333#3 1057256029 1057256028 1057256027 -97251479#3 -97251479#2 -97251479#1"/>
    </vehicle>
    <vehicle id="87" depart="87.00">
        <route edges="97251479#0 97251479#1 97251479#2 97251479#3 24392333#0 24392333#1 24392333#2 24392333#3 1057256029 1057256028 1057256027 -97251479#3"/>
    </vehicle>
    <vehicle id="91" depart="91.00">
        <route edges="97251479#3 24392333#0 24392333#1 24392333#2 24392333#3 1057256029 1057256028 1057256027 -97251479#3 -97251479#2 -97251479#1"/>
    </vehicle>
    <vehicle id="92" depart="92.00">
        <route edges="24436844#2 24436844#3 24436844#4 24436844#5 1057256029 1152958775#0 1152958775#1 24400261 1152958776"/>
    </vehicle>
    <vehicle id="93" depart="93.00">
        <route edges="97251479#1 97251479#2 97251479#3 24392333#0 24392333#1 24392333#2 24392333#3 1057256029 1152958775#0"/>
    </vehicle>
    <vehicle id="95" depart="95.00">
        <route edges="24436844#2 24436844#3 24436844#4 24436844#5 1057256029 1152958775#0 1152958775#1"/>
    </vehicle>
    <vehicle id="97" depart="97.00">
        <route edges="24436844#2 24436844#3 24436844#4 24436844#5 1057256029 1057256028 1057256027 -97251479#3 -97251479#2 -97251479#1 -97251479#0 97251479#0 97251479#1"/>
    </vehicle>
    <vehicle id="98" depart="98.00">
        <route edges="24436844#5 1057256029 1057256028 1057256027 -97251479#3 -97251479#2 -97251479#1 -97251479#0"/>
    </vehicle>
    <vehicle id="100" depart="100.00">
        <route edges="97251479#3 24392333#0 24392333#1 24392333#2 24392333#3 1057256029 1057256028 1057256027 -97251479#3 -97251479#2 -97251479#1 -97251479#0 97251479#0 97251479#1 97251479#2"/>
    </vehicle>
    <vehicle id="101" depart="101.00">
        <route edges="97251479#0 97251479#1 97251479#2 97251479#3 24392333#0 24392333#1 24392333#2 24392333#3 1057256029 1057256028 1057256027 -97251479#3"/>
    </vehicle>
    <vehicle id="102" depart="102.00">
        <route edges="24436844#3 24436844#4 24436844#5 1057256029 1152958775#0"/>
    </vehicle>
    <vehicle id="103" depart="103.00">
        <route edges="24436844#2 24436844#3 24436844#4 24436844#5 1057256029 1057256028 1057256027 -97251479#3 -97251479#2 -97251479#1"/>
    </vehicle>
    <vehicle id="104" depart="104.00">
        <route edges="24436844#1 24436844#2 24436844#3 24436844#4 24436844#5 1057256029 1057256028 1057256027 -97251479#3 -97251479#2 -97251479#1 -97251479#0 97251479#0 97251479#1 97251479#2 97251479#3"/>
    </vehicle>
    <vehicle id="107" depart="107.00">
        <route edges="97251479#3"/>
    </vehicle>
    <vehicle id="109" depart="109.00">
        <route edges="1152958775#0 1152958775#1"/>
    </vehicle>
    <vehicle id="113" depart="113.00">
        <route edges="24436844#4 24436844#5 1057256029 1057256028 1057256027 -97251479#3 -97251479#2 -97251479#1 -97251479#0 97251479#0 97251479#1"/>
    </vehicle>
    <vehicle id="115" depart="115.00">
        <route edges="-97251479#2 -97251479#1 -97251479#0 97251479#0 97251479#1 97251479#2 97251479#3 24392333#0 24392333#1 24392333#2 24392333#3 1057256029 1057256028 1057256027 -97251479#3"/>
    </vehicle>
    <vehicle id="116" depart="116.00">
        <route edges="24436844#5"/>
    </vehicle>
    <vehicle id="118" depart="118.00">
        <route edges="97251479#1 97251479#2 97251479#3 24392333#0 24392333#1 24392333#2 24392333#3 1057256029 1152958775#0"/>
    </vehicle>
    <vehicle id="120" depart="120.00">
        <route edges="24436844#2 24436844#3 24436844#4"/>
    </vehicle>
    <vehicle id="121" depart="121.00">
        <route edges="24436844#4 24436844#5 1057256029 1057256028 1057256027 -97251479#3 -97251479#2 -97251479#1 -97251479#0 97251479#0 97251479#1 97251479#2"/>
    </vehicle>
    <vehicle id="123" depart="123.00">
        <route edges="1152958775#1 24400261"/>
    </vehicle>
    <vehicle id="124" depart="124.00">
        <route edges="24443806#1 24443806#2 24443806#3 1057256027 24392333#0 24392333#1 24392333#2 24392333#3 1057256029 1152958775#0 1152958775#1"/>
    </vehicle>
    <vehicle id="127" depart="127.00">
        <route edges="97251479#3"/>
    </vehicle>
    <vehicle id="128" depart="128.00">
        <route edges="-97251479#2 -97251479#1 -97251479#0 97251479#0 97251479#1 97251479#2 97251479#3 24392333#0 24392333#1 24392333#2 24392333#3 1057256029 1152958775#0"/>
    </vehicle>
    <vehicle id="130" depart="130.00">
        <route edges="97251479#1"/>
    </vehicle>
    <vehicle id="131" depart="131.00">
        <route edges="24436844#1 24436844#2 24436844#3 24436844#4 24436844#5 1057256029 1057256028 1057256027 -97251479#3 -97251479#2"/>
    </vehicle>
    <vehicle id="133" depart="133.00">
        <route edges="24443806#0 24443806#1 24443806#2 24443806#3 1057256027 -97251479#3 -97251479#2 -97251479#1 -97251479#0 97251479#0 97251479#1 97251479#2 97251479#3"/>
    </vehicle>
    <vehicle id="134" depart="134.00">
        <route edges="24443806#1 24443806#2 24443806#3 1057256027 -97251479#3 -97251479#2 -97251479#1 -97251479#0"/>
    </vehicle>
    <vehicle id="135" depart="135.00">
        <route edges="97251479#0 97251479#1 97251479#2 97251479#3 24392333#0 24392333#1 24392333#2 24392333#3 1057256029 1152958775#0 1152958775#1"/>
    </vehicle>
    <vehicle id="136" depart="136.00">
        <route edges="24443806#1 24443806#2 24443806#3 1057256027 -97251479#3 -97251479#2 -97251479#1 -97251479#0 97251479#0 97251479#1 97251479#2"/>
    </vehicle>
    <vehicle id="137" depart="137.00">
        <route edges="-97251479#3 -97251479#2"/>
    </vehicle>
    <vehicle id="140" depart="140.00">
        <route edges="24443806#2 24443806#3 1057256027 -97251479#3"/>
    </vehicle>
    <vehicle id="141" depart="141.00">
        <route edges="24443806#0 24443806#1 24443806#2 24443806#3 1057256027 24392333#0 24392333#1 24392333#2 24392333#3 1057256029 1152958775#0 1152958775#1"/>
    </vehicle>
    <vehicle id="142" depart="142.00">
        <route edges="24436844#3 24436844#4 24436844#5 1057256029 1057256028 1057256027 -97251479#3 -97251479#2 -97251479#1 -97251479#0 97251479#0 97251479#1 97251479#2"/>
    </vehicle>
    <vehicle id="143" depart="143.00">
        <route edges="97251479#0 97251479#1 97251479#2 97251479#3 24392333#0 24392333#1 24392333#2 24392333#3 1057256029 1057256028 1057256027 -97251479#3 -97251479#2 -97251479#1"/>
    </vehicle>
    <vehicle id="144" depart="144.00">
        <route edges="24436844#2 24436844#3 24436844#4 24436844#5 1057256029 1152958775#0 1152958775#1"/>
    </vehicle>
    <vehicle id="146" depart="146.00">
        <route edges="24443806#0 24443806#1 24443806#2 24443806#3 1057256027 24392333#0 24392333#1 24392333#2 24392333#3 1057256029 1152958775#0"/>
    </vehicle>
    <vehicle id="148" depart="148.00">
        <route edges="24436844#2 24436844#3 24436844#4 24436844#5 1057256029 1057256028 1057256027 -97251479#3 -97251479#2 -97251479#1 -97251479#0"/>
    </vehicle>
    <vehicle id="149" depart="149.00">
        <route edges="-97251479#2 -97251479#1 -97251479#0 97251479#0 97251479#1"/>
    </vehicle>
    <vehicle id="152" depart="152.00">
        <route edges="-97251479#3 -97251479#2"/>
    </vehicle>
    <vehicle id="153" depart="153.00">
        <route edges="24436844#0 24436844#1 24436844#2 24436844#3 24436844#4 24436844#5 1057256029 1057256028 1057256027 -97251479#3 -97251479#2 -97251479#1 -97251479#0 97251479#0 97251479#1 97251479#2"/>
    </vehicle>
    <vehicle id="154" depart="154.00">
        <route edges="24443806#3 1057256027 -97251479#3 -97251479#2 -97251479#1 -97251479#0 97251479#0 97251479#1"/>
    </vehicle>
    <vehicle id="155" depart="155.00">
        <route edges="97251479#1 97251479#2 97251479#3 24392333#0 24392333#1 24392333#2 24392333#3 1057256029 1057256028 1057256027 -97251479#3"/>
    </vehicle>
    <vehicle id="157" depart="157.00">
        <route edges="24443806#3 1057256027 -97251479#3 -97251479#2 -97251479#1 -97251479#0 97251479#0 97251479#1"/>
    </vehicle>
    <vehicle id="158" depart="158.00">
        <route edges="24436844#2 24436844#3 24436844#4"/>
    </vehicle>
    <vehicle id="160" depart="160.00">
        <route edges="97251479#1 97251479#2 97251479#3"/>
    </vehicle>
    <vehicle id="161" depart="161.00">
        <route edges="97251479#0 97251479#1"/>
    </vehicle>
    <vehicle id="163" depart="163.00">
        <route edges="24436844#0 24436844#1 24436844#2 24436844#3 24436844#4 24436844#5 1057256029 1057256028 1057256027 -97251479#3 -97251479#2 -97251479#1 -97251479#0 97251479#0 97251479#1 97251479#2"/>
    </vehicle>
    <vehicle id="164" depart="164.00">
        <route edges="97251479#0 97251479#1"/>
    </vehicle>
    <vehicle id="165" depart="165.00">
        <route edges="97251479#0 97251479#1 97251479#2 97251479#3 24392333#0 24392333#1 24392333#2 24392333#3 1057256029 1152958775#0 1152958775#1"/>
    </vehicle>
    <vehicle id="166" depart="166.00">
        <route edges="24443806#3 1057256027 -97251479#3 -97251479#2"/>
    </vehicle>
    <vehicle id="167" depart="167.00">
        <route edges="97251479#1"/>
    </vehicle>
    <vehicle id="169" depart="169.00">
        <route edges="24436844#3 24436844#4 24436844#5 1057256029 1152958775#0 1152958775#1"/>
    </vehicle>
    <vehicle id="170" depart="170.00">
        <route edges="24443806#3 1057256027 24392333#0 24392333#1 24392333#2 24392333#3 1057256029 1152958775#0"/>
    </vehicle>
    <vehicle id="171" depart="171.00">
        <route edges="-97251479#1 -97251479#0 97251479#0 97251479#1 97251479#2 97251479#3 24392333#0 24392333#1 24392333#2 24392333#3 1057256029 1057256028 1057256027 -97251479#3"/>
    </vehicle>
    <vehicle id="172" depart="172.00">
        <route edges="24436844#0 24436844#1 24436844#2 24436844#3 24436844#4 24436844#5 1057256029 1057256028 1057256027 -97251479#3 -97251479#2 -97251479#1 -97251479#0 97251479#0 97251479#1"/>
    </vehicle>
    <vehicle id="173" depart="173.00">
        <route edges="97251479#3 24392333#0 24392333#1 24392333#2 24392333#3 1057256029 1152958775#0 1152958775#1"/>
    </vehicle>
    <vehicle id="174" depart="174.00">
        <route edges="24443806#0 24443806#1 24443806#2 24443806#3 1057256027 24392333#0 24392333#1 24392333#2 24392333#3 1057256029 1152958775#0 1152958775#1 24400261"/>
    </vehicle>
    <vehicle id="176" depart="176.00">
        <route edges="97251479#2 97251479#3 24392333#0 24392333#1 24392333#2 24392333#3 1057256029 1057256028 1057256027 -97251479#3 -97251479#2"/>
    </vehicle>
    <vehicle id="177" depart="177.00">
        <route edges="97251479#3 24392333#0 24392333#1 24392333#2 24392333#3 1057256029 1057256028 1057256027 -97251479#3"/>
    </vehicle>
    <vehicle id="178" depart="178.00">
        <route edges="97251479#3 24392333#0 24392333#1 24392333#2 24392333#3 1057256029 1152958775#0 1152958775#1"/>
    </vehicle>
    <vehicle id="180" depart="180.00">
        <route edges="24443806#2 24443806#3 1057256027 24392333#0 24392333#1 24392333#2 24392333#3 1057256029 1152958775#0 1152958775#1"/>
    </vehicle>
    <vehicle id="182" depart="182.00">
        <route edges="24436844#1 24436844#2 24436844#3"/>
    </vehicle>
    <vehicle id="184" depart="184.00">
        <route edges="-97251479#1 -97251479#0 97251479#0 97251479#1 97251479#2"/>
    </vehicle>
    <vehicle id="187" depart="187.00">
        <route edges="24436844#1 24436844#2 24436844#3 24436844#4 24436844#5 1057256029 1057256028 1057256027 -97251479#3 -97251479#2 -97251479#1"/>
    </vehicle>
    <vehicle id="188" depart="188.00">
        <route edges="24443806#1 24443806#2 24443806#3 1057256027 24392333#0 24392333#1 24392333#2 24392333#3 1057256029 1152958775#0 1152958775#1 24400261 1152958776"/>
    </vehicle>
    <vehicle id="189" depart="189.00">
        <route edges="24436844#0 24436844#1 24436844#2 24436844#3 24436844#4 24436844#5 1057256029 1057256028 1057256027 -97251479#3 -97251479#2 -97251479#1 -97251479#0 97251479#0 97251479#1"/>
    </vehicle>
    <vehicle id="190" depart="190.00">
        <route edges="24443806#2 24443806#3 1057256027 24392333#0 24392333#1 24392333#2 24392333#3 1057256029 1152958775#0 1152958775#1"/>
    </vehicle>
    <vehicle id="191" depart="191.00">
        <route edges="24436844#0 24436844#1 24436844#2 24436844#3 24436844#4 24436844#5 1057256029 1152958775#0 1152958775#1 24400261"/>
    </vehicle>
    <vehicle id="192" depart="192.00">
        <route edges="24436844#2 24436844#3 24436844#4 24436844#5 1057256029 1152958775#0 1152958775#1"/>
    </vehicle>
    <vehicle id="193" depart="193.00">
        <route edges="-97251479#3 -97251479#2 -97251479#1 -97251479#0 97251479#0 97251479#1 97251479#2 97251479#3 24392333#0 24392333#1 24392333#2 24392333#3 1057256029 1152958775#0 1152958775#1 24400261"/>
    </vehicle>
    <vehicle id="196" depart="196.00">
        <route edges="24436844#0 24436844#1 24436844#2 24436844#3"/>
    </vehicle>
    <vehicle id="197" depart="197.00">
        <route edges="-97251479#1 -97251479#0 97251479#0 97251479#1 97251479#2 97251479#3 24392333#0 24392333#1 24392333#2 24392333#3 1057256029 1152958775#0 1152958775#1"/>
    </vehicle>
    <vehicle id="198" depart="198.00">
        <route edges="24436844#2 24436844#3 24436844#4"/>
    </vehicle>
    <vehicle id="200" depart="200.00">
        <route edges="24436844#2 24436844#3 24436844#4 24436844#5 1057256029 1152958775#0"/>
    </vehicle>
    <vehicle id="201" depart="201.00">
        <route edges="24436844#3 24436844#4 24436844#5 1057256029 1057256028 1057256027 -97251479#3 -97251479#2 -97251479#1 -97251479#0 97251479#0 97251479#1 97251479#2"/>
    </vehicle>
    <vehicle id="202" depart="202.00">
        <route edges="24443806#3 1057256027 -97251479#3"/>
    </vehicle>
    <vehicle id="204" depart="204.00">
        <route edges="24443806#0 24443806#1 24443806#2 24443806#3 1057256027 24392333#0 24392333#1 24392333#2 24392333#3 1057256029 1152958775#0 1152958775#1 24400261 1152958776"/>
    </vehicle>
    <vehicle id="206" depart="206.00">
        <route edges="24443806#1 24443806#2 24443806#3 1057256027 24392333#0 24392333#1 24392333#2 24392333#3 1057256029 1152958775#0"/>
    </vehicle>
    <vehicle id="209" depart="209.00">
        <route edges="97251479#0 97251479#1 97251479#2 97251479#3 24392333#0 24392333#1 24392333#2 24392333#3 1057256029 1057256028 1057256027 -97251479#3 -97251479#2 -97251479#1"/>
    </vehicle>
    <vehicle id="210" depart="210.00">
        <route edges="24436844#2 24436844#3 24436844#4"/>
    </vehicle>
    <vehicle id="212" depart="212.00">
        <route edges="24436844#3 24436844#4 24436844#5 1057256029 1152958775#0"/>
    </vehicle>
    <vehicle id="213" depart="213.00">
        <route edges="24443806#1 24443806#2 24443806#3 1057256027 -97251479#3 -97251479#2 -97251479#1 -97251479#0"/>
    </vehicle>
    <vehicle id="217" depart="217.00">
        <route edges="24436844#4 24436844#5 1057256029 1057256028 1057256027 -97251479#3 -97251479#2 -97251479#1 -97251479#0"/>
    </vehicle>
    <vehicle id="220" depart="220.00">
        <route edges="24443806#1 24443806#2 24443806#3 1057256027 -97251479#3 -97251479#2 -97251479#1 -97251479#0 97251479#0 97251479#1 97251479#2 97251479#3"/>
    </vehicle>
    <vehicle id="221" depart="221.00">
        <route edges="24436844#5 1057256029 1057256028 1057256027 -97251479#3 -97251479#2 -97251479#1 -97251479#0 97251479#0 97251479#1 97251479#2 97251479#3"/>
    </vehicle>
    <vehicle id="226" depart="226.00">
        <route edges="24436844#3 24436844#4 24436844#5 1057256029 1152958775#0"/>
    </vehicle>
    <vehicle id="229" depart="229.00">
        <route edges="24443806#0 24443806#1 24443806#2 24443806#3 1057256027 24392333#0 24392333#1 24392333#2 24392333#3 1057256029 1152958775#0 1152958775#1"/>
    </vehicle>
    <vehicle id="230" depart="230.00">
        <route edges="-97251479#2 -97251479#1 -97251479#0 97251479#0 97251479#1 97251479#2 97251479#3 24392333#0 24392333#1 24392333#2 24392333#3 1057256029 1152958775#0 1152958775#1"/>
    </vehicle>
    <vehicle id="231" depart="231.00">
        <route edges="24400261 1152958776"/>
    </vehicle>
    <vehicle id="232" depart="232.00">
        <route edges="24436844#4 24436844#5 1057256029 1057256028 1057256027 -97251479#3 -97251479#2"/>
    </vehicle>
    <vehicle id="234" depart="234.00">
        <route edges="24443806#2 24443806#3 1057256027 -97251479#3 -97251479#2 -97251479#1"/>
    </vehicle>
    <vehicle id="235" depart="235.00">
        <route edges="24436844#2 24436844#3"/>
    </vehicle>
    <vehicle id="236" depart="236.00">
        <route edges="24436844#2 24436844#3 24436844#4 24436844#5 1057256029 1057256028 1057256027 -97251479#3"/>
    </vehicle>
    <vehicle id="237" depart="237.00">
        <route edges="24436844#2 24436844#3 24436844#4 24436844#5 1057256029 1057256028 1057256027 -97251479#3 -97251479#2 -97251479#1 -97251479#0 97251479#0 97251479#1 97251479#2"/>
    </vehicle>
    <vehicle id="240" depart="240.00">
        <route edges="24436844#1 24436844#2 24436844#3 24436844#4 24436844#5 1057256029 1057256028 1057256027 -97251479#3 -97251479#2 -97251479#1 -97251479#0"/>
    </vehicle>
    <vehicle id="242" depart="242.00">
        <route edges="97251479#1 97251479#2 97251479#3"/>
    </vehicle>
    <vehicle id="244" depart="244.00">
        <route edges="24436844#4"/>
    </vehicle>
    <vehicle id="246" depart="246.00">
        <route edges="24436844#2 24436844#3 24436844#4 24436844#5 1057256029 1057256028 1057256027 -97251479#3 -97251479#2 -97251479#1 -97251479#0"/>
    </vehicle>
    <vehicle id="247" depart="247.00">
        <route edges="24436844#0 24436844#1 24436844#2 24436844#3 24436844#4 24436844#5"/>
    </vehicle>
    <vehicle id="248" depart="248.00">
        <route edges="24436844#2 24436844#3 24436844#4 24436844#5 1057256029 1057256028 1057256027 -97251479#3"/>
    </vehicle>
    <vehicle id="249" depart="249.00">
        <route edges="24436844#3 24436844#4 24436844#5 1057256029 1057256028 1057256027 -97251479#3 -97251479#2"/>
    </vehicle>
    <vehicle id="250" depart="250.00">
        <route edges="24443806#0 24443806#1 24443806#2 24443806#3 1057256027 -97251479#3 -97251479#2 -97251479#1 -97251479#0"/>
    </vehicle>
    <vehicle id="251" depart="251.00">
        <route edges="24436844#1 24436844#2 24436844#3"/>
    </vehicle>
    <vehicle id="254" depart="254.00">
        <route edges="-97251479#2 -97251479#1 -97251479#0 97251479#0 97251479#1 97251479#2 97251479#3 24392333#0 24392333#1 24392333#2 24392333#3 1057256029 1152958775#0 1152958775#1 24400261"/>
    </vehicle>
    <vehicle id="255" depart="255.00">
        <route edges="1152958775#1 24400261 1152958776"/>
    </vehicle>
    <vehicle id="256" depart="256.00">
        <route edges="24443806#3 1057256027 24392333#0 24392333#1 24392333#2 24392333#3 1057256029 1152958775#0 1152958775#1 24400261"/>
    </vehicle>
    <vehicle id="257" depart="257.00">
        <route edges="24443806#3"/>
    </vehicle>
    <vehicle id="260" depart="260.00">
        <route edges="97251479#3 24392333#0 24392333#1 24392333#2 24392333#3 1057256029 1152958775#0 1152958775#1 24400261 1152958776"/>
    </vehicle>
    <vehicle id="261" depart="261.00">
        <route edges="24443806#1 24443806#2"/>
    </vehicle>
    <vehicle id="262" depart="262.00">
        <route edges="24443806#1 24443806#2"/>
    </vehicle>
    <vehicle id="263" depart="263.00">
        <route edges="97251479#2 97251479#3 24392333#0 24392333#1 24392333#2 24392333#3 1057256029 1057256028 1057256027 -97251479#3"/>
    </vehicle>
    <vehicle id="264" depart="264.00">
        <route edges="-97251479#1 -97251479#0 97251479#0 97251479#1 97251479#2 97251479#3 24392333#0 24392333#1 24392333#2 24392333#3 1057256029 1057256028 1057256027 -97251479#3 -97251479#2"/>
    </vehicle>
    <vehicle id="266" depart="266.00">
        <route edges="24436844#5 1057256029 1152958775#0"/>
    </vehicle>
    <vehicle id="267" depart="267.00">
        <route edges="24443806#1 24443806#2"/>
    </vehicle>
    <vehicle id="269" depart="269.00">
        <route edges="24443806#2 24443806#3 1057256027 -97251479#3 -97251479#2"/>
    </vehicle>
    <vehicle id="270" depart="270.00">
        <route edges="97251479#0 97251479#1 97251479#2 97251479#3"/>
    </vehicle>
    <vehicle id="271" depart="271.00">
        <route edges="-97251479#3 -97251479#2 -97251479#1 -97251479#0"/>
    </vehicle>
    <vehicle id="272" depart="272.00">
        <route edges="24436844#0 24436844#1 24436844#2 24436844#3 24436844#4 24436844#5"/>
    </vehicle>
    <vehicle id="273" depart="273.00">
        <route edges="97251479#3 24392333#0 24392333#1 24392333#2 24392333#3 1057256029 1152958775#0 1152958775#1 24400261"/>
    </vehicle>
    <vehicle id="274" depart="274.00">
        <route edges="24443806#2 24443806#3 1057256027 -97251479#3 -97251479#2 -97251479#1"/>
    </vehicle>
    <vehicle id="278" depart="278.00">
        <route edges="-97251479#3 -97251479#2 -97251479#1 -97251479#0 97251479#0 97251479#1 97251479#2 97251479#3"/>
    </vehicle>
    <vehicle id="279" depart="279.00">
        <route edges="24443806#3 1057256027 24392333#0 24392333#1 24392333#2 24392333#3 1057256029 1152958775#0 1152958775#1 24400261 1152958776"/>
    </vehicle>
    <vehicle id="280" depart="280.00">
        <route edges="24436844#2 24436844#3 24436844#4 24436844#5 1057256029 1152958775#0 1152958775#1 24400261"/>
    </vehicle>
    <vehicle id="281" depart="281.00">
        <route edges="24436844#4 24436844#5 1057256029 1152958775#0 1152958775#1 24400261 1152958776"/>
    </vehicle>
    <vehicle id="283" depart="283.00">
        <route edges="-97251479#3 -97251479#2 -97251479#1 -97251479#0 97251479#0 97251479#1 97251479#2 97251479#3"/>
    </vehicle>
    <vehicle id="284" depart="284.00">
        <route edges="24443806#0 24443806#1 24443806#2 24443806#3"/>
    </vehicle>
    <vehicle id="286" depart="286.00">