<?xml version="1.0" encoding="UTF-8"?>

<!-- generated on 2024-11-16 21:54:30 by Eclipse SUMO netconvert Version 1.21.0
<netconvertConfiguration xmlns:xsi="http://www.w3.org/2001/XMLSchema-instance" xsi:noNamespaceSchemaLocation="http://sumo.dlr.de/xsd/netconvertConfiguration.xsd">

    <input>
        <osm-files value="map.osm"/>
    </input>

    <output>
        <output-file value="map.net.xml"/>
    </output>

    <projection>
        <proj.utm value="true"/>
    </projection>

</netconvertConfiguration>
-->

<net version="1.20" junctionCornerDetail="5" limitTurnSpeed="5.50" xmlns:xsi="http://www.w3.org/2001/XMLSchema-instance" xsi:noNamespaceSchemaLocation="http://sumo.dlr.de/xsd/net_file.xsd">

    <location netOffset="-664752.95,-5102536.38" convBoundary="0.00,0.00,403.52,383.88" origBoundary="11.129912,46.056532,11.135174,46.059978" projParameter="+proj=utm +zone=32 +ellps=WGS84 +datum=WGS84 +units=m +no_defs"/>

    <type id="highway.footway" priority="1" numLanes="1" speed="2.78" allow="pedestrian" oneway="1" width="2.00"/>
    <type id="highway.service" priority="1" numLanes="1" speed="5.56" allow="pedestrian delivery bicycle" oneway="0"/>
    <type id="highway.unclassified" priority="4" numLanes="1" speed="13.89" disallow="tram rail_urban rail rail_electric rail_fast ship container cable_car subway aircraft wheelchair scooter drone" oneway="0"/>

    <edge id=":10130055542_0" function="internal">
        <lane id=":10130055542_0_0" index="0" allow="bicycle" speed="4.26" length="3.55" shape="219.64,128.26 219.54,129.20 219.50,130.27 219.66,131.16 220.18,131.52"/>
    </edge>
    <edge id=":10130055542_1" function="internal">
        <lane id=":10130055542_1_0" index="0" allow="bicycle" speed="6.14" length="5.33" shape="213.83,132.28 214.86,131.70 215.63,130.79 216.17,129.55 216.45,127.97"/>
    </edge>
    <edge id=":10130055542_2" function="internal">
        <lane id=":10130055542_2_0" index="0" disallow="tram rail_urban rail rail_electric rail_fast ship container cable_car subway aircraft wheelchair scooter drone" speed="13.89" length="6.44" shape="213.83,132.28 215.65,131.72 216.94,131.53 218.26,131.52 220.18,131.52"/>
    </edge>
    <edge id=":10130055543_0" function="internal">
        <lane id=":10130055543_0_0" index="0" allow="bicycle" speed="5.56" length="5.69" shape="220.44,118.26 220.03,123.93"/>
    </edge>
    <edge id=":10130055543_1" function="internal">
        <lane id=":10130055543_1_0" index="0" allow="bicycle" speed="3.65" length="1.44" shape="220.44,118.26 219.58,119.41"/>
    </edge>
    <edge id=":10130055543_4" function="internal">
        <lane id=":10130055543_4_0" index="0" allow="bicycle" speed="3.65" length="3.23" shape="219.58,119.41 218.76,119.77 217.98,119.33 217.24,118.10"/>
    </edge>
    <edge id=":10130055543_2" function="internal">
        <lane id=":10130055543_2_0" index="0" allow="bicycle" speed="5.56" length="5.55" shape="216.85,123.64 217.24,118.10"/>
    </edge>
    <edge id=":10130055543_3" function="internal">
        <lane id=":10130055543_3_0" index="0" allow="bicycle" speed="3.65" length="1.29" shape="216.85,123.64 217.66,122.63"/>
    </edge>
    <edge id=":10130055543_5" function="internal">
        <lane id=":10130055543_5_0" index="0" allow="bicycle" speed="3.65" length="3.38" shape="217.66,122.63 217.75,122.51 218.58,122.19 219.34,122.66 220.03,123.93"/>
    </edge>
    <edge id=":10130055544_0" function="internal">
        <lane id=":10130055544_0_0" index="0" allow="bicycle" speed="4.60" length="5.14" shape="216.72,107.39 216.44,105.78 215.81,104.84 214.84,104.55 213.52,104.92"/>
    </edge>
    <edge id=":10130055544_1" function="internal">
        <lane id=":10130055544_1_0" index="0" allow="bicycle" speed="5.56" length="10.56" shape="216.72,107.39 216.80,104.08 217.43,101.43 218.63,99.43 220.37,98.10"/>
    </edge>
    <edge id=":10130055544_2" function="internal">
        <lane id=":10130055544_2_0" index="0" allow="bicycle" speed="3.65" length="4.67" shape="216.72,107.39 217.45,106.14 218.23,105.70 219.05,106.06 219.91,107.21"/>
    </edge>
    <edge id=":10130055544_3" function="internal">
        <lane id=":10130055544_3_0" index="0" allow="bicycle" speed="5.56" length="6.92" shape="221.88,100.92 220.91,101.74 220.26,103.05 219.93,104.88 219.91,107.21"/>
    </edge>
    <edge id=":10130055544_4" function="internal">
        <lane id=":10130055544_4_0" index="0" allow="bicycle" speed="5.56" length="9.26" shape="221.88,100.92 213.52,104.92"/>
    </edge>
    <edge id=":10130055544_5" function="internal">
        <lane id=":10130055544_5_0" index="0" allow="bicycle" speed="3.65" length="4.68" shape="221.88,100.92 220.44,100.78 219.71,100.26 219.69,99.37 220.37,98.10"/>
    </edge>
    <edge id=":10130055544_6" function="internal">
        <lane id=":10130055544_6_0" index="0" allow="bicycle" speed="5.56" length="7.98" shape="212.97,99.00 213.92,99.75 215.47,99.84 217.62,99.29 220.37,98.10"/>
    </edge>
    <edge id=":10130055544_7" function="internal">
        <lane id=":10130055544_7_0" index="0" allow="bicycle" speed="5.56" length="11.13" shape="212.97,99.00 215.11,101.38 217.31,102.84 219.08,104.42 219.91,107.21"/>
    </edge>
    <edge id=":10130055544_8" function="internal">
        <lane id=":10130055544_8_0" index="0" allow="bicycle" speed="5.56" length="8.68" shape="212.97,99.00 215.32,100.27 216.20,101.68 215.60,103.23 213.52,104.92"/>
    </edge>
    <edge id=":10130055547_0" function="internal">
        <lane id=":10130055547_0_0" index="0" allow="bicycle" speed="5.56" length="13.20" shape="220.37,79.03 224.26,77.63 226.69,78.06 227.67,80.33 227.20,84.43"/>
    </edge>
    <edge id=":10130055547_1" function="internal">
        <lane id=":10130055547_1_0" index="0" allow="bicycle" speed="4.06" length="4.40" shape="224.09,83.69 224.24,82.32 223.92,81.57 223.10,81.42 221.81,81.89"/>
    </edge>
    <edge id=":10130055550_0" function="internal">
        <lane id=":10130055550_0_0" index="0" allow="bicycle" speed="5.86" length="5.05" shape="225.88,130.44 225.62,131.41 225.78,132.49 226.36,133.68 227.34,134.99"/>
    </edge>
    <edge id=":10130055550_1" function="internal">
        <lane id=":10130055550_1_0" index="0" allow="bicycle" speed="4.80" length="3.77" shape="220.70,131.73 221.40,131.54 222.05,130.80 222.61,129.84 223.02,129.00"/>
    </edge>
    <edge id=":10130055550_2" function="internal">
        <lane id=":10130055550_2_0" index="0" disallow="tram rail_urban rail rail_electric rail_fast ship container cable_car subway aircraft wheelchair scooter drone" speed="11.70" length="7.60" shape="220.70,131.73 222.90,132.27 224.44,132.69 225.78,133.45 227.34,134.99"/>
    </edge>
    <edge id=":10130055551_0" function="internal">
        <lane id=":10130055551_0_0" index="0" allow="bicycle" speed="5.56" length="5.32" shape="230.26,121.99 227.78,126.69"/>
    </edge>
    <edge id=":10130055551_1" function="internal">
        <lane id=":10130055551_1_0" index="0" allow="bicycle" speed="3.65" length="1.30" shape="230.26,121.99 229.11,122.59"/>
    </edge>
    <edge id=":10130055551_4" function="internal">
        <lane id=":10130055551_4_0" index="0" allow="bicycle" speed="3.65" length="3.37" shape="229.11,122.59 228.98,122.66 228.09,122.62 227.58,121.89 227.46,120.45"/>
    </edge>
    <edge id=":10130055551_2" function="internal">
        <lane id=":10130055551_2_0" index="0" allow="bicycle" speed="5.56" length="5.42" shape="224.93,125.24 227.46,120.45"/>
    </edge>
    <edge id=":10130055551_3" function="internal">
        <lane id=":10130055551_3_0" index="0" allow="bicycle" speed="3.65" length="1.44" shape="224.93,125.24 226.18,124.54"/>
    </edge>
    <edge id=":10130055551_5" function="internal">
        <lane id=":10130055551_5_0" index="0" allow="bicycle" speed="3.65" length="3.23" shape="226.18,124.54 227.08,124.54 227.61,125.26 227.78,126.69"/>
    </edge>
    <edge id=":10130055553_0" function="internal">
        <lane id=":10130055553_0_0" index="0" allow="bicycle" speed="3.65" length="4.67" shape="252.06,91.13 253.48,90.91 254.32,91.23 254.56,92.09 254.22,93.49"/>
    </edge>
    <edge id=":10224381918_0" function="internal">
        <lane id=":10224381918_0_0" index="0" allow="pedestrian delivery bicycle" speed="6.09" length="7.54" shape="138.30,174.31 138.35,173.02 139.23,171.83 140.94,170.73 143.49,169.72"/>
    </edge>
    <edge id=":10224381918_1" function="internal">
        <lane id=":10224381918_1_0" index="0" allow="pedestrian delivery bicycle" speed="3.65" length="4.67" shape="138.30,174.31 138.75,172.94 139.41,172.33 140.29,172.50 141.39,173.44"/>
    </edge>
    <edge id=":10224381918_2" function="internal">
        <lane id=":10224381918_2_0" index="0" disallow="tram rail_urban rail rail_electric rail_fast ship container cable_car subway aircraft wheelchair scooter drone" speed="13.89" length="9.41" shape="134.55,172.63 143.49,169.72"/>
    </edge>
    <edge id=":10224381918_3" function="internal">
        <lane id=":10224381918_3_0" index="0" allow="pedestrian delivery bicycle" speed="5.95" length="7.61" shape="134.55,172.63 137.25,171.94 139.29,171.85 140.67,172.35 141.39,173.44"/>
    </edge>
    <edge id=":10224381919_0" function="internal">
        <lane id=":10224381919_0_0" index="0" allow="pedestrian delivery bicycle" speed="3.65" length="4.67" shape="156.96,228.84 156.51,230.21 155.85,230.81 154.97,230.65 153.88,229.71"/>
    </edge>
    <edge id=":10224381920_0" function="internal">
        <lane id=":10224381920_0_0" index="0" allow="pedestrian delivery bicycle" speed="5.56" length="4.87" shape="139.68,179.19 138.36,174.50"/>
    </edge>
    <edge id=":10224381920_1" function="internal">
        <lane id=":10224381920_1_0" index="0" allow="pedestrian delivery bicycle" speed="3.65" length="1.44" shape="139.68,179.19 140.12,177.82"/>
    </edge>
    <edge id=":10224381920_4" function="internal">
        <lane id=":10224381920_4_0" index="0" allow="pedestrian delivery bicycle" speed="3.65" length="3.23" shape="140.12,177.82 140.78,177.21 141.66,177.38 142.76,178.32"/>
    </edge>
    <edge id=":10224381920_2" function="internal">
        <lane id=":10224381920_2_0" index="0" allow="pedestrian delivery bicycle" speed="5.56" length="4.87" shape="141.44,173.64 142.76,178.32"/>
    </edge>
    <edge id=":10224381920_3" function="internal">
        <lane id=":10224381920_3_0" index="0" allow="pedestrian delivery bicycle" speed="3.65" length="1.44" shape="141.44,173.64 140.99,175.01"/>
    </edge>
    <edge id=":10224381920_5" function="internal">
        <lane id=":10224381920_5_0" index="0" allow="pedestrian delivery bicycle" speed="3.65" length="3.23" shape="140.99,175.01 140.33,175.61 139.45,175.44 138.36,174.50"/>
    </edge>
    <edge id=":10723677469_0" function="internal">
        <lane id=":10723677469_0_0" index="0" disallow="tram rail_urban rail rail_electric rail_fast ship container cable_car subway aircraft wheelchair scooter drone" speed="13.89" length="0.27" width="9.00" shape="239.81,209.09 239.87,209.36"/>
    </edge>
    <edge id=":10723677470_0" function="internal">
        <lane id=":10723677470_0_0" index="0" disallow="tram rail_urban rail rail_electric rail_fast ship container cable_car subway aircraft wheelchair scooter drone" speed="13.89" length="0.25" width="9.00" shape="230.08,171.20 230.00,170.96"/>
    </edge>
    <edge id=":11381222362_0" function="internal">
        <lane id=":11381222362_0_0" index="0" allow="pedestrian delivery bicycle" speed="5.56" length="9.48" shape="274.21,104.59 278.96,112.79"/>
    </edge>
    <edge id=":11381222362_1" function="internal">
        <lane id=":11381222362_1_0" index="0" allow="pedestrian delivery bicycle" speed="5.56" length="8.22" shape="274.21,104.59 275.44,107.18 275.79,109.23 275.28,110.74 273.91,111.71"/>
    </edge>
    <edge id=":11381222362_2" function="internal">
        <lane id=":11381222362_2_0" index="0" allow="pedestrian delivery bicycle" speed="5.56" length="8.07" shape="272.76,108.72 274.32,108.52 275.88,109.13 277.43,110.56 278.96,112.79"/>
    </edge>
    <edge id=":11381222362_3" function="internal">
        <lane id=":11381222362_3_0" index="0" allow="pedestrian delivery bicycle" speed="3.65" length="4.67" shape="272.76,108.72 274.16,109.04 274.82,109.64 274.74,110.53 273.91,111.71"/>
    </edge>
    <edge id=":11381222363_0" function="internal">
        <lane id=":11381222363_0_0" index="0" allow="pedestrian delivery bicycle" speed="3.65" length="4.67" shape="241.70,124.13 240.29,123.81 239.63,123.21 239.72,122.32 240.55,121.14"/>
    </edge>
    <edge id=":12188971581_0" function="internal">
        <lane id=":12188971581_0_0" index="0" allow="pedestrian delivery bicycle" speed="5.56" length="9.40" shape="149.24,213.19 146.69,204.14"/>
    </edge>
    <edge id=":12188971581_1" function="internal">
        <lane id=":12188971581_1_0" index="0" allow="pedestrian delivery bicycle" speed="5.56" length="10.25" shape="149.24,213.19 148.87,210.40 149.49,208.18 151.09,206.52 153.69,205.43"/>
    </edge>
    <edge id=":12188971581_2" function="internal">
        <lane id=":12188971581_2_0" index="0" allow="pedestrian delivery bicycle" speed="3.65" length="4.67" shape="149.24,213.19 149.68,211.82 150.35,211.22 151.22,211.39 152.32,212.33"/>
    </edge>
    <edge id=":12188971581_3" function="internal">
        <lane id=":12188971581_3_0" index="0" allow="pedestrian delivery bicycle" speed="5.02" length="5.02" shape="154.50,208.52 153.23,209.06 152.44,209.87 152.14,210.96 152.32,212.33"/>
    </edge>
    <edge id=":12188971581_4" function="internal">
        <lane id=":12188971581_4_0" index="0" allow="pedestrian delivery bicycle" speed="5.56" length="10.16" shape="154.50,208.52 151.71,208.85 149.49,208.23 147.81,206.66 146.69,204.14"/>
    </edge>
    <edge id=":12188971581_5" function="internal">
        <lane id=":12188971581_5_0" index="0" allow="pedestrian delivery bicycle" speed="3.65" length="4.67" shape="154.50,208.52 153.13,208.05 152.54,207.38 152.73,206.50 153.69,205.43"/>
    </edge>
    <edge id=":12188971581_6" function="internal">
        <lane id=":12188971581_6_0" index="0" allow="pedestrian delivery bicycle" speed="5.10" length="5.07" shape="149.77,203.28 150.33,204.52 151.17,205.29 152.29,205.59 153.69,205.43"/>
    </edge>
    <edge id=":12188971581_7" function="internal">
        <lane id=":12188971581_7_0" index="0" allow="pedestrian delivery bicycle" speed="5.56" length="9.40" shape="149.77,203.28 152.32,212.33"/>
    </edge>
    <edge id=":12188971581_8" function="internal">
        <lane id=":12188971581_8_0" index="0" allow="pedestrian delivery bicycle" speed="3.65" length="4.67" shape="149.77,203.28 149.33,204.65 148.67,205.25 147.79,205.08 146.69,204.14"/>
    </edge>
    <edge id=":12188971583_0" function="internal">
        <lane id=":12188971583_0_0" index="0" allow="pedestrian delivery bicycle" speed="3.65" length="4.67" shape="179.92,227.43 179.42,228.79 178.74,229.37 177.87,229.16 176.81,228.19"/>
    </edge>
    <edge id=":1311008977_0" function="internal">
        <lane id=":1311008977_0_0" index="0" disallow="tram rail_urban rail rail_electric rail_fast ship container cable_car subway aircraft wheelchair scooter drone" speed="13.89" length="5.18" shape="191.61,154.10 193.07,153.62 194.06,153.26 195.03,152.86 196.44,152.23"/>
    </edge>
    <edge id=":1311009086_0" function="internal">
        <lane id=":1311009086_0_0" index="0" disallow="tram rail_urban rail rail_electric rail_fast ship container cable_car subway aircraft wheelchair scooter drone" speed="8.33" length="5.03" shape="241.83,137.77 237.04,139.30"/>
    </edge>
    <edge id=":1311009231_0" function="internal">
        <lane id=":1311009231_0_0" index="0" disallow="tram rail_urban rail rail_electric rail_fast ship container cable_car subway aircraft wheelchair scooter drone" speed="13.89" length="5.09" shape="197.26,124.09 194.47,119.83"/>
    </edge>
    <edge id=":1311009231_1" function="internal">
        <lane id=":1311009231_1_0" index="0" disallow="tram rail_urban rail rail_electric rail_fast ship container cable_car subway aircraft wheelchair scooter drone" speed="13.89" length="5.03" shape="197.16,118.10 199.92,122.30"/>
    </edge>
    <edge id=":2197854051_0" function="internal">
        <lane id=":2197854051_0_0" index="0" disallow="tram rail_urban rail rail_electric rail_fast ship container cable_car subway aircraft wheelchair scooter drone" speed="13.89" length="6.09" shape="169.95,81.72 166.57,76.66"/>
    </edge>
    <edge id=":2197854051_1" function="internal">
        <lane id=":2197854051_1_0" index="0" allow="pedestrian delivery bicycle" speed="5.53" length="2.22" shape="169.95,81.72 169.23,79.98 169.28,79.66"/>
    </edge>
    <edge id=":2197854051_4" function="internal">
        <lane id=":2197854051_4_0" index="0" allow="pedestrian delivery bicycle" speed="5.53" length="5.25" shape="169.28,79.66 169.47,78.50 170.66,77.27 172.82,76.30"/>
    </edge>
    <edge id=":2197854051_2" function="internal">
        <lane id=":2197854051_2_0" index="0" allow="pedestrian delivery bicycle" speed="5.27" length="4.25" shape="169.17,74.80 169.98,75.71 170.86,76.26 171.81,76.46 172.82,76.30"/>
    </edge>
    <edge id=":2197854051_3" function="internal">
        <lane id=":2197854051_3_0" index="0" disallow="tram rail_urban rail rail_electric rail_fast ship container cable_car subway aircraft wheelchair scooter drone" speed="13.89" length="6.24" shape="169.17,74.80 172.64,79.99"/>
    </edge>
    <edge id=":2197854055_0" function="internal">
        <lane id=":2197854055_0_0" index="0" disallow="tram rail_urban rail rail_electric rail_fast ship container cable_car subway aircraft wheelchair scooter drone" speed="8.33" length="5.93" shape="288.01,122.91 282.44,124.93"/>
    </edge>
    <edge id=":2197854055_1" function="internal">
        <lane id=":2197854055_1_0" index="0" allow="pedestrian delivery bicycle" speed="4.81" length="4.98" shape="283.68,120.91 284.22,122.26 284.19,123.38 283.60,124.27 282.44,124.93"/>
    </edge>
    <edge id=":264726750_0" function="internal">
        <lane id=":264726750_0_0" index="0" disallow="tram rail_urban rail rail_electric rail_fast ship container cable_car subway aircraft wheelchair scooter drone" speed="13.89" length="0.20" shape="220.38,131.52 220.51,131.68"/>
    </edge>
    <edge id=":264726754_0" function="internal">
        <lane id=":264726754_0_0" index="0" disallow="tram rail_urban rail rail_electric rail_fast ship container cable_car subway aircraft wheelchair scooter drone" speed="7.22" length="8.35" shape="206.08,130.48 207.63,131.91 209.41,132.70 211.41,132.85 213.64,132.34"/>
    </edge>
    <edge id=":264726754_1" function="internal">
        <lane id=":264726754_1_0" index="0" disallow="tram rail_urban rail rail_electric rail_fast ship container cable_car subway aircraft wheelchair scooter drone" speed="8.54" length="9.53" shape="205.01,141.50 205.60,139.04 205.56,136.72 204.90,134.54 203.60,132.51"/>
    </edge>
    <edge id=":264726754_2" function="internal">
        <lane id=":264726754_2_0" index="0" disallow="tram rail_urban rail rail_electric rail_fast ship container cable_car subway aircraft wheelchair scooter drone" speed="10.87" length="13.01" shape="205.01,141.50 206.49,138.30 208.41,135.71 210.80,133.73 213.64,132.34"/>
    </edge>
    <edge id=":264726756_0" function="internal">
        <lane id=":264726756_0_0" index="0" disallow="tram rail_urban rail rail_electric rail_fast ship container cable_car subway aircraft wheelchair scooter drone" speed="10.85" length="6.79" shape="205.55,150.31 204.67,148.55 204.39,147.21 204.45,145.78 204.62,143.77"/>
    </edge>
    <edge id=":264726756_1" function="internal">
        <lane id=":264726756_1_0" index="0" disallow="tram rail_urban rail rail_electric rail_fast ship container cable_car subway aircraft wheelchair scooter drone" speed="8.27" length="6.35" shape="201.19,148.94 202.64,147.57 203.69,146.25 204.35,144.99 204.62,143.77"/>
    </edge>
    <edge id=":264726768_0" function="internal">
        <lane id=":264726768_0_0" index="0" disallow="tram rail_urban rail rail_electric rail_fast ship container cable_car subway aircraft wheelchair scooter drone" speed="13.89" length="13.93" width="9.00" shape="231.54,147.21 230.52,150.66 229.41,153.89 228.51,157.14 228.15,160.67"/>
    </edge>
    <edge id=":264726768_1" function="internal">
        <lane id=":264726768_1_0" index="0" disallow="tram rail_urban rail rail_electric rail_fast ship container cable_car subway aircraft wheelchair scooter drone" speed="10.77" length="15.82" shape="231.54,147.21 230.14,151.09 227.96,154.22 225.00,156.61 221.26,158.24"/>
    </edge>
    <edge id=":264726772_0" function="internal">
        <lane id=":264726772_0_0" index="0" disallow="tram rail_urban rail rail_electric rail_fast ship container cable_car subway aircraft wheelchair scooter drone" speed="6.59" length="7.86" shape="235.76,139.71 233.85,140.63 232.55,141.94 231.88,143.63 231.84,145.71"/>
    </edge>
    <edge id=":264726772_1" function="internal">
        <lane id=":264726772_1_0" index="0" disallow="tram rail_urban rail rail_electric rail_fast ship container cable_car subway aircraft wheelchair scooter drone" speed="12.41" length="9.34" shape="229.15,137.04 230.76,139.20 231.42,140.96 231.62,142.93 231.84,145.71"/>
    </edge>
    <edge id=":265659067_0" function="internal">
        <lane id=":265659067_0_0" index="0" allow="pedestrian delivery bicycle" speed="3.65" length="4.67" shape="216.61,361.43 215.91,362.69 215.14,363.15 214.31,362.82 213.42,361.69"/>
    </edge>
    <edge id=":265659073_0" function="internal">
        <lane id=":265659073_0_0" index="0" allow="pedestrian delivery bicycle" speed="5.67" length="8.05" shape="164.50,166.47 164.04,165.05 164.65,163.72 166.35,162.50 169.12,161.37"/>
    </edge>
    <edge id=":265659073_1" function="internal">
        <lane id=":265659073_1_0" index="0" allow="pedestrian delivery bicycle" speed="3.65" length="4.67" shape="164.50,166.47 164.49,165.03 164.93,164.25 165.81,164.13 167.15,164.67"/>
    </edge>
    <edge id=":265659073_2" function="internal">
        <lane id=":265659073_2_0" index="0" disallow="tram rail_urban rail rail_electric rail_fast ship container cable_car subway aircraft wheelchair scooter drone" speed="13.89" length="9.67" shape="159.93,164.36 169.12,161.37"/>
    </edge>
    <edge id=":265659073_3" function="internal">
        <lane id=":265659073_3_0" index="0" allow="pedestrian delivery bicycle" speed="6.74" length="7.66" shape="159.93,164.36 162.53,163.68 164.60,163.50 166.14,163.83 167.15,164.67"/>
    </edge>
    <edge id=":4160534197_0" function="internal">
        <lane id=":4160534197_0_0" index="0" allow="pedestrian delivery bicycle" speed="8.33" length="5.37" shape="331.75,112.02 331.94,113.60 332.09,114.68 332.32,115.75 332.70,117.30"/>
    </edge>
    <edge id=":4160534198_0" function="internal">
        <lane id=":4160534198_0_0" index="0" allow="pedestrian delivery bicycle" speed="8.33" length="5.16" shape="283.01,133.73 282.45,132.30 282.04,131.34 281.59,130.39 280.88,129.03"/>
    </edge>
    <edge id=":4160534199_0" function="internal">
        <lane id=":4160534199_0_0" index="0" disallow="tram rail_urban rail rail_electric rail_fast ship container cable_car subway aircraft wheelchair scooter drone" speed="13.89" length="5.11" width="9.00" shape="228.92,166.02 229.18,167.52 229.37,168.54 229.62,169.55 230.02,171.01"/>
    </edge>
    <edge id=":4160534202_0" function="internal">
        <lane id=":4160534202_0_0" index="0" allow="pedestrian delivery bicycle" speed="8.33" length="5.27" shape="356.59,212.13 356.98,213.65 357.27,214.68 357.61,215.69 358.14,217.17"/>
    </edge>
    <edge id=":430531957_0" function="internal">
        <lane id=":430531957_0_0" index="0" disallow="tram rail_urban rail rail_electric rail_fast ship container cable_car subway aircraft wheelchair scooter drone" speed="3.65" length="4.67" shape="119.61,7.35 119.59,5.91 120.03,5.13 120.91,5.00 122.25,5.54"/>
    </edge>
    <edge id=":441787213_0" function="internal">
        <lane id=":441787213_0_0" index="0" allow="pedestrian delivery bicycle" speed="6.26" length="5.69" shape="333.29,104.90 332.35,105.70 331.75,106.81 331.47,108.24 331.52,109.98"/>
    </edge>
    <edge id=":441787213_1" function="internal">
        <lane id=":441787213_1_0" index="0" disallow="tram rail_urban rail rail_electric rail_fast ship container cable_car subway aircraft wheelchair scooter drone" speed="8.33" length="6.37" shape="333.29,104.90 327.69,107.94"/>
    </edge>
    <edge id=":441787215_0" function="internal">
        <lane id=":441787215_0_0" index="0" allow="pedestrian delivery bicycle" speed="5.38" length="5.04" shape="280.80,128.87 279.99,127.71 279.03,127.01 277.92,126.75 276.64,126.95"/>
    </edge>
    <edge id=":441787215_1" function="internal">
        <lane id=":441787215_1_0" index="0" disallow="tram rail_urban rail rail_electric rail_fast ship container cable_car subway aircraft wheelchair scooter drone" speed="8.33" length="5.86" shape="282.18,125.03 276.64,126.95"/>
    </edge>
    <edge id=":4444733760_0" function="internal">
        <lane id=":4444733760_0_0" index="0" allow="pedestrian delivery bicycle" speed="3.65" length="4.67" shape="372.58,70.81 373.22,72.10 373.16,72.99 372.41,73.49 370.97,73.58"/>
    </edge>
    <edge id=":4444733769_0" function="internal">
        <lane id=":4444733769_0_0" index="0" disallow="tram rail_urban rail rail_electric rail_fast ship container cable_car subway aircraft wheelchair scooter drone" speed="8.33" length="9.74" shape="324.79,109.44 322.21,110.76 320.41,111.58 318.56,112.29 315.83,113.24"/>
    </edge>
    <edge id=":4444733769_1" function="internal">
        <lane id=":4444733769_1_0" index="0" allow="pedestrian delivery bicycle" speed="6.50" length="8.32" shape="324.79,109.44 322.26,110.48 320.16,110.78 318.49,110.32 317.25,109.11"/>
    </edge>
    <edge id=":4444733769_2" function="internal">
        <lane id=":4444733769_2_0" index="0" allow="pedestrian delivery bicycle" speed="5.88" length="8.51" shape="319.93,107.36 320.56,109.09 320.09,110.65 318.51,112.03 315.83,113.24"/>
    </edge>
    <edge id=":4444733769_3" function="internal">
        <lane id=":4444733769_3_0" index="0" allow="pedestrian delivery bicycle" speed="3.65" length="4.67" shape="319.93,107.36 319.91,108.80 319.46,109.57 318.57,109.68 317.25,109.11"/>
    </edge>
    <edge id=":4497466457_0" function="internal">
        <lane id=":4497466457_0_0" index="0" allow="pedestrian delivery bicycle" speed="4.72" length="4.32" shape="165.20,74.74 164.29,73.70 163.38,73.15 162.49,73.09 161.59,73.51"/>
    </edge>
    <edge id=":4497466457_1" function="internal">
        <lane id=":4497466457_1_0" index="0" disallow="tram rail_urban rail rail_electric rail_fast ship container cable_car subway aircraft wheelchair scooter drone" speed="13.89" length="9.33" shape="165.20,74.74 159.93,67.03"/>
    </edge>
    <edge id=":4497466457_2" function="internal">
        <lane id=":4497466457_2_0" index="0" disallow="tram rail_urban rail rail_electric rail_fast ship container cable_car subway aircraft wheelchair scooter drone" speed="13.89" length="9.19" shape="162.62,65.28 167.80,72.88"/>
    </edge>
    <edge id=":4497466457_3" function="internal">
        <lane id=":4497466457_3_0" index="0" allow="pedestrian delivery bicycle" speed="6.76" length="3.21" shape="162.62,65.28 163.78,67.68 163.83,68.23"/>
    </edge>
    <edge id=":4497466457_7" function="internal">
        <lane id=":4497466457_7_0" index="0" allow="pedestrian delivery bicycle" speed="6.76" length="6.11" shape="163.83,68.23 163.99,69.85 163.27,71.80 161.59,73.51"/>
    </edge>
    <edge id=":4497466457_4" function="internal">
        <lane id=":4497466457_4_0" index="0" allow="pedestrian delivery bicycle" speed="4.89" length="4.41" shape="159.68,70.95 160.40,70.18 160.69,69.26 160.53,68.21 159.93,67.03"/>
    </edge>
    <edge id=":4497466457_5" function="internal">
        <lane id=":4497466457_5_0" index="0" allow="pedestrian delivery bicycle" speed="6.62" length="9.55" shape="159.68,70.95 161.83,69.84 163.91,69.79 165.90,70.80 167.80,72.88"/>
    </edge>
    <edge id=":4497466457_6" function="internal">
        <lane id=":4497466457_6_0" index="0" allow="pedestrian delivery bicycle" speed="3.65" length="4.67" shape="159.68,70.95 161.12,70.87 161.92,71.27 162.08,72.15 161.59,73.51"/>
    </edge>
    <edge id=":4497466461_0" function="internal">
        <lane id=":4497466461_0_0" index="0" allow="pedestrian delivery bicycle" speed="3.65" length="4.67" shape="52.52,11.86 52.45,10.41 52.86,9.62 53.74,9.47 55.10,9.96"/>
    </edge>
    <edge id=":7312025843_0" function="internal">
        <lane id=":7312025843_0_0" index="0" allow="pedestrian delivery bicycle" speed="5.56" length="4.59" shape="173.01,76.24 177.40,74.89"/>
    </edge>
    <edge id=":8572952761_0" function="internal">
        <lane id=":8572952761_0_0" index="0" allow="pedestrian delivery bicycle" speed="5.56" length="5.35" shape="56.37,17.02 55.33,15.82 54.69,14.95 54.09,14.04 53.17,12.74"/>
    </edge>
    <edge id=":8572952761_1" function="internal">
        <lane id=":8572952761_1_0" index="0" allow="pedestrian delivery bicycle" speed="3.66" length="1.45" shape="56.37,17.02 56.34,15.57"/>
    </edge>
    <edge id=":8572952761_4" function="internal">
        <lane id=":8572952761_4_0" index="0" allow="pedestrian delivery bicycle" speed="3.66" length="3.26" shape="56.34,15.57 56.76,14.77 57.65,14.64 59.01,15.16"/>
    </edge>
    <edge id=":8572952761_2" function="internal">
        <lane id=":8572952761_2_0" index="0" allow="pedestrian delivery bicycle" speed="5.56" length="5.41" shape="55.75,10.85 56.68,12.16 57.30,13.08 57.96,13.95 59.01,15.16"/>
    </edge>
    <edge id=":8572952761_3" function="internal">